* NGSPICE file created from wrapped_seven_segment.ext - technology: sky130A

.subckt sky130_fd_sc_hd__decap_12 VGND VPWR VPB VNB
X0 VPWR VGND VPWR VPB sky130_fd_pr__pfet_01v8_hvt ad=0p pd=0u as=0p ps=0u w=870000u l=4.73e+06u
X1 VGND VPWR VGND VNB sky130_fd_pr__nfet_01v8 ad=0p pd=0u as=0p ps=0u w=550000u l=4.73e+06u
.ends

.subckt sky130_fd_sc_hd__decap_8 VPWR VGND VPB VNB
X0 VPWR VGND VPWR VPB sky130_fd_pr__pfet_01v8_hvt ad=0p pd=0u as=0p ps=0u w=870000u l=2.89e+06u
X1 VGND VPWR VGND VNB sky130_fd_pr__nfet_01v8 ad=0p pd=0u as=0p ps=0u w=550000u l=2.89e+06u
.ends

.subckt sky130_fd_sc_hd__decap_4 VGND VPWR VPB VNB
X0 VPWR VGND VPWR VPB sky130_fd_pr__pfet_01v8_hvt ad=0p pd=0u as=0p ps=0u w=870000u l=1.05e+06u
X1 VGND VPWR VGND VNB sky130_fd_pr__nfet_01v8 ad=0p pd=0u as=0p ps=0u w=550000u l=1.05e+06u
.ends

.subckt sky130_fd_sc_hd__conb_1 LO HI VPB VNB VGND VPWR
R0 HI VPWR sky130_fd_pr__res_generic_po w=480000u l=45000u
R1 VGND LO sky130_fd_pr__res_generic_po w=480000u l=45000u
.ends

.subckt sky130_fd_sc_hd__buf_2 VPWR VGND X A VPB VNB
X0 VGND a_27_47# X VNB sky130_fd_pr__nfet_01v8 ad=0p pd=0u as=0p ps=0u w=650000u l=150000u
X1 VPWR A a_27_47# VPB sky130_fd_pr__pfet_01v8_hvt ad=0p pd=0u as=0p ps=0u w=640000u l=150000u
X2 X a_27_47# VGND VNB sky130_fd_pr__nfet_01v8 ad=0p pd=0u as=0p ps=0u w=650000u l=150000u
X3 VPWR a_27_47# X VPB sky130_fd_pr__pfet_01v8_hvt ad=0p pd=0u as=0p ps=0u w=1e+06u l=150000u
X4 X a_27_47# VPWR VPB sky130_fd_pr__pfet_01v8_hvt ad=0p pd=0u as=0p ps=0u w=1e+06u l=150000u
X5 VGND A a_27_47# VNB sky130_fd_pr__nfet_01v8 ad=0p pd=0u as=0p ps=0u w=420000u l=150000u
.ends

.subckt sky130_fd_sc_hd__dfxtp_4 VGND VPWR D CLK Q VNB VPB
X0 a_975_413# a_193_47# a_891_413# VPB sky130_fd_pr__pfet_01v8_hvt ad=0p pd=0u as=0p ps=0u w=420000u l=150000u
X1 VGND a_891_413# a_1062_300# VNB sky130_fd_pr__nfet_01v8 ad=0p pd=0u as=0p ps=0u w=650000u l=150000u
X2 VGND a_1062_300# Q VNB sky130_fd_pr__nfet_01v8 ad=0p pd=0u as=0p ps=0u w=650000u l=150000u
X3 a_572_47# a_193_47# a_475_413# VNB sky130_fd_pr__nfet_01v8 ad=0p pd=0u as=0p ps=0u w=360000u l=150000u
X4 VPWR a_891_413# a_1062_300# VPB sky130_fd_pr__pfet_01v8_hvt ad=0p pd=0u as=0p ps=0u w=1e+06u l=150000u
X5 Q a_1062_300# VPWR VPB sky130_fd_pr__pfet_01v8_hvt ad=0p pd=0u as=0p ps=0u w=1e+06u l=150000u
X6 a_891_413# a_27_47# a_634_183# VPB sky130_fd_pr__pfet_01v8_hvt ad=0p pd=0u as=0p ps=0u w=420000u l=150000u
X7 VPWR a_1062_300# Q VPB sky130_fd_pr__pfet_01v8_hvt ad=0p pd=0u as=0p ps=0u w=1e+06u l=150000u
X8 Q a_1062_300# VGND VNB sky130_fd_pr__nfet_01v8 ad=0p pd=0u as=0p ps=0u w=650000u l=150000u
X9 a_475_413# a_27_47# a_381_47# VNB sky130_fd_pr__nfet_01v8 ad=0p pd=0u as=0p ps=0u w=360000u l=150000u
X10 a_381_47# D VPWR VPB sky130_fd_pr__pfet_01v8_hvt ad=0p pd=0u as=0p ps=0u w=420000u l=150000u
X11 a_634_183# a_475_413# VPWR VPB sky130_fd_pr__pfet_01v8_hvt ad=0p pd=0u as=0p ps=0u w=750000u l=150000u
X12 Q a_1062_300# VPWR VPB sky130_fd_pr__pfet_01v8_hvt ad=0p pd=0u as=0p ps=0u w=1e+06u l=150000u
X13 VGND a_634_183# a_572_47# VNB sky130_fd_pr__nfet_01v8 ad=0p pd=0u as=0p ps=0u w=420000u l=150000u
X14 VPWR a_1062_300# a_975_413# VPB sky130_fd_pr__pfet_01v8_hvt ad=0p pd=0u as=0p ps=0u w=420000u l=150000u
X15 VGND a_1062_300# a_1020_47# VNB sky130_fd_pr__nfet_01v8 ad=0p pd=0u as=0p ps=0u w=420000u l=150000u
X16 a_1020_47# a_27_47# a_891_413# VNB sky130_fd_pr__nfet_01v8 ad=0p pd=0u as=0p ps=0u w=360000u l=150000u
X17 a_634_183# a_475_413# VGND VNB sky130_fd_pr__nfet_01v8 ad=0p pd=0u as=0p ps=0u w=640000u l=150000u
X18 a_568_413# a_27_47# a_475_413# VPB sky130_fd_pr__pfet_01v8_hvt ad=0p pd=0u as=0p ps=0u w=420000u l=150000u
X19 VPWR a_634_183# a_568_413# VPB sky130_fd_pr__pfet_01v8_hvt ad=0p pd=0u as=0p ps=0u w=420000u l=150000u
X20 VGND a_1062_300# Q VNB sky130_fd_pr__nfet_01v8 ad=0p pd=0u as=0p ps=0u w=650000u l=150000u
X21 a_193_47# a_27_47# VGND VNB sky130_fd_pr__nfet_01v8 ad=0p pd=0u as=0p ps=0u w=420000u l=150000u
X22 VGND CLK a_27_47# VNB sky130_fd_pr__nfet_01v8 ad=0p pd=0u as=0p ps=0u w=420000u l=150000u
X23 VPWR CLK a_27_47# VPB sky130_fd_pr__pfet_01v8_hvt ad=0p pd=0u as=0p ps=0u w=640000u l=150000u
X24 Q a_1062_300# VGND VNB sky130_fd_pr__nfet_01v8 ad=0p pd=0u as=0p ps=0u w=650000u l=150000u
X25 a_193_47# a_27_47# VPWR VPB sky130_fd_pr__pfet_01v8_hvt ad=0p pd=0u as=0p ps=0u w=640000u l=150000u
X26 a_381_47# D VGND VNB sky130_fd_pr__nfet_01v8 ad=0p pd=0u as=0p ps=0u w=420000u l=150000u
X27 a_891_413# a_193_47# a_634_183# VNB sky130_fd_pr__nfet_01v8 ad=0p pd=0u as=0p ps=0u w=360000u l=150000u
X28 a_475_413# a_193_47# a_381_47# VPB sky130_fd_pr__pfet_01v8_hvt ad=0p pd=0u as=0p ps=0u w=420000u l=150000u
X29 VPWR a_1062_300# Q VPB sky130_fd_pr__pfet_01v8_hvt ad=0p pd=0u as=0p ps=0u w=1e+06u l=150000u
.ends

.subckt sky130_fd_sc_hd__ebufn_2 Z A TE_B VNB VPB VGND VPWR
X0 a_214_47# TE_B VGND VNB sky130_fd_pr__nfet_01v8 ad=0p pd=0u as=0p ps=0u w=420000u l=150000u
X1 Z a_27_47# a_392_47# VNB sky130_fd_pr__nfet_01v8 ad=0p pd=0u as=0p ps=0u w=650000u l=150000u
X2 a_214_47# TE_B VPWR VPB sky130_fd_pr__pfet_01v8_hvt ad=0p pd=0u as=0p ps=0u w=640000u l=150000u
X3 VPWR A a_27_47# VPB sky130_fd_pr__pfet_01v8_hvt ad=0p pd=0u as=0p ps=0u w=640000u l=150000u
X4 a_320_309# a_27_47# Z VPB sky130_fd_pr__pfet_01v8_hvt ad=0p pd=0u as=0p ps=0u w=1e+06u l=150000u
X5 a_392_47# a_214_47# VGND VNB sky130_fd_pr__nfet_01v8 ad=0p pd=0u as=0p ps=0u w=650000u l=150000u
X6 a_320_309# TE_B VPWR VPB sky130_fd_pr__pfet_01v8_hvt ad=0p pd=0u as=0p ps=0u w=940000u l=150000u
X7 VGND A a_27_47# VNB sky130_fd_pr__nfet_01v8 ad=0p pd=0u as=0p ps=0u w=420000u l=150000u
X8 Z a_27_47# a_320_309# VPB sky130_fd_pr__pfet_01v8_hvt ad=0p pd=0u as=0p ps=0u w=1e+06u l=150000u
X9 VGND a_214_47# a_392_47# VNB sky130_fd_pr__nfet_01v8 ad=0p pd=0u as=0p ps=0u w=650000u l=150000u
X10 VPWR TE_B a_320_309# VPB sky130_fd_pr__pfet_01v8_hvt ad=0p pd=0u as=0p ps=0u w=940000u l=150000u
X11 a_392_47# a_27_47# Z VNB sky130_fd_pr__nfet_01v8 ad=0p pd=0u as=0p ps=0u w=650000u l=150000u
.ends

.subckt sky130_fd_sc_hd__decap_3 VPWR VGND VPB VNB
X0 VPWR VGND VPWR VPB sky130_fd_pr__pfet_01v8_hvt ad=0p pd=0u as=0p ps=0u w=870000u l=590000u
X1 VGND VPWR VGND VNB sky130_fd_pr__nfet_01v8 ad=0p pd=0u as=0p ps=0u w=550000u l=590000u
.ends

.subckt sky130_fd_sc_hd__inv_2 A Y VPB VNB VPWR VGND
X0 VGND A Y VNB sky130_fd_pr__nfet_01v8 ad=0p pd=0u as=0p ps=0u w=650000u l=150000u
X1 Y A VPWR VPB sky130_fd_pr__pfet_01v8_hvt ad=0p pd=0u as=0p ps=0u w=1e+06u l=150000u
X2 Y A VGND VNB sky130_fd_pr__nfet_01v8 ad=0p pd=0u as=0p ps=0u w=650000u l=150000u
X3 VPWR A Y VPB sky130_fd_pr__pfet_01v8_hvt ad=0p pd=0u as=0p ps=0u w=1e+06u l=150000u
.ends

.subckt sky130_fd_sc_hd__decap_6 VPWR VGND VPB VNB
X0 VPWR VGND VPWR VPB sky130_fd_pr__pfet_01v8_hvt ad=0p pd=0u as=0p ps=0u w=870000u l=1.97e+06u
X1 VGND VPWR VGND VNB sky130_fd_pr__nfet_01v8 ad=0p pd=0u as=0p ps=0u w=550000u l=1.97e+06u
.ends

.subckt sky130_fd_sc_hd__a21o_4 A2 A1 X B1 VNB VPB VGND VPWR
X0 a_483_297# A2 VPWR VPB sky130_fd_pr__pfet_01v8_hvt ad=0p pd=0u as=0p ps=0u w=1e+06u l=150000u
X1 X a_84_21# VGND VNB sky130_fd_pr__nfet_01v8 ad=0p pd=0u as=0p ps=0u w=650000u l=150000u
X2 VPWR A1 a_483_297# VPB sky130_fd_pr__pfet_01v8_hvt ad=0p pd=0u as=0p ps=0u w=1e+06u l=150000u
X3 a_84_21# A1 a_741_47# VNB sky130_fd_pr__nfet_01v8 ad=0p pd=0u as=0p ps=0u w=650000u l=150000u
X4 VGND B1 a_84_21# VNB sky130_fd_pr__nfet_01v8 ad=0p pd=0u as=0p ps=0u w=650000u l=150000u
X5 a_741_47# A2 VGND VNB sky130_fd_pr__nfet_01v8 ad=0p pd=0u as=0p ps=0u w=650000u l=150000u
X6 X a_84_21# VPWR VPB sky130_fd_pr__pfet_01v8_hvt ad=0p pd=0u as=0p ps=0u w=1e+06u l=150000u
X7 a_84_21# B1 VGND VNB sky130_fd_pr__nfet_01v8 ad=0p pd=0u as=0p ps=0u w=650000u l=150000u
X8 VGND a_84_21# X VNB sky130_fd_pr__nfet_01v8 ad=0p pd=0u as=0p ps=0u w=650000u l=150000u
X9 a_483_297# B1 a_84_21# VPB sky130_fd_pr__pfet_01v8_hvt ad=0p pd=0u as=0p ps=0u w=1e+06u l=150000u
X10 VPWR a_84_21# X VPB sky130_fd_pr__pfet_01v8_hvt ad=0p pd=0u as=0p ps=0u w=1e+06u l=150000u
X11 X a_84_21# VPWR VPB sky130_fd_pr__pfet_01v8_hvt ad=0p pd=0u as=0p ps=0u w=1e+06u l=150000u
X12 a_84_21# B1 a_483_297# VPB sky130_fd_pr__pfet_01v8_hvt ad=0p pd=0u as=0p ps=0u w=1e+06u l=150000u
X13 VPWR A2 a_483_297# VPB sky130_fd_pr__pfet_01v8_hvt ad=0p pd=0u as=0p ps=0u w=1e+06u l=150000u
X14 X a_84_21# VGND VNB sky130_fd_pr__nfet_01v8 ad=0p pd=0u as=0p ps=0u w=650000u l=150000u
X15 VGND A2 a_901_47# VNB sky130_fd_pr__nfet_01v8 ad=0p pd=0u as=0p ps=0u w=650000u l=150000u
X16 VGND a_84_21# X VNB sky130_fd_pr__nfet_01v8 ad=0p pd=0u as=0p ps=0u w=650000u l=150000u
X17 VPWR a_84_21# X VPB sky130_fd_pr__pfet_01v8_hvt ad=0p pd=0u as=0p ps=0u w=1e+06u l=150000u
X18 a_901_47# A1 a_84_21# VNB sky130_fd_pr__nfet_01v8 ad=0p pd=0u as=0p ps=0u w=650000u l=150000u
X19 a_483_297# A1 VPWR VPB sky130_fd_pr__pfet_01v8_hvt ad=0p pd=0u as=0p ps=0u w=1e+06u l=150000u
.ends

.subckt sky130_fd_sc_hd__or3_4 A X B C VPB VNB VPWR VGND
X0 X a_27_47# VGND VNB sky130_fd_pr__nfet_01v8 ad=0p pd=0u as=0p ps=0u w=650000u l=150000u
X1 X a_27_47# VPWR VPB sky130_fd_pr__pfet_01v8_hvt ad=0p pd=0u as=0p ps=0u w=1e+06u l=150000u
X2 X a_27_47# VPWR VPB sky130_fd_pr__pfet_01v8_hvt ad=0p pd=0u as=0p ps=0u w=1e+06u l=150000u
X3 VGND A a_27_47# VNB sky130_fd_pr__nfet_01v8 ad=0p pd=0u as=0p ps=0u w=650000u l=150000u
X4 VPWR a_27_47# X VPB sky130_fd_pr__pfet_01v8_hvt ad=0p pd=0u as=0p ps=0u w=1e+06u l=150000u
X5 X a_27_47# VGND VNB sky130_fd_pr__nfet_01v8 ad=0p pd=0u as=0p ps=0u w=650000u l=150000u
X6 a_27_47# B VGND VNB sky130_fd_pr__nfet_01v8 ad=0p pd=0u as=0p ps=0u w=650000u l=150000u
X7 VPWR A a_193_297# VPB sky130_fd_pr__pfet_01v8_hvt ad=0p pd=0u as=0p ps=0u w=1e+06u l=150000u
X8 VGND C a_27_47# VNB sky130_fd_pr__nfet_01v8 ad=0p pd=0u as=0p ps=0u w=650000u l=150000u
X9 VGND a_27_47# X VNB sky130_fd_pr__nfet_01v8 ad=0p pd=0u as=0p ps=0u w=650000u l=150000u
X10 a_109_297# C a_27_47# VPB sky130_fd_pr__pfet_01v8_hvt ad=0p pd=0u as=0p ps=0u w=1e+06u l=150000u
X11 VPWR a_27_47# X VPB sky130_fd_pr__pfet_01v8_hvt ad=0p pd=0u as=0p ps=0u w=1e+06u l=150000u
X12 a_193_297# B a_109_297# VPB sky130_fd_pr__pfet_01v8_hvt ad=0p pd=0u as=0p ps=0u w=1e+06u l=150000u
X13 VGND a_27_47# X VNB sky130_fd_pr__nfet_01v8 ad=0p pd=0u as=0p ps=0u w=650000u l=150000u
.ends

.subckt sky130_fd_sc_hd__o22a_4 B2 B1 X A1 A2 VNB VPB VGND VPWR
X0 a_918_297# A2 a_96_21# VPB sky130_fd_pr__pfet_01v8_hvt ad=0p pd=0u as=0p ps=0u w=1e+06u l=150000u
X1 VPWR a_96_21# X VPB sky130_fd_pr__pfet_01v8_hvt ad=0p pd=0u as=0p ps=0u w=1e+06u l=150000u
X2 VPWR B1 a_566_297# VPB sky130_fd_pr__pfet_01v8_hvt ad=0p pd=0u as=0p ps=0u w=1e+06u l=150000u
X3 a_96_21# B1 a_484_47# VNB sky130_fd_pr__nfet_01v8 ad=0p pd=0u as=0p ps=0u w=650000u l=150000u
X4 X a_96_21# VGND VNB sky130_fd_pr__nfet_01v8 ad=0p pd=0u as=0p ps=0u w=650000u l=150000u
X5 X a_96_21# VPWR VPB sky130_fd_pr__pfet_01v8_hvt ad=0p pd=0u as=0p ps=0u w=1e+06u l=150000u
X6 VPWR A1 a_918_297# VPB sky130_fd_pr__pfet_01v8_hvt ad=0p pd=0u as=0p ps=0u w=1e+06u l=150000u
X7 a_484_47# A2 VGND VNB sky130_fd_pr__nfet_01v8 ad=0p pd=0u as=0p ps=0u w=650000u l=150000u
X8 VGND a_96_21# X VNB sky130_fd_pr__nfet_01v8 ad=0p pd=0u as=0p ps=0u w=650000u l=150000u
X9 X a_96_21# VPWR VPB sky130_fd_pr__pfet_01v8_hvt ad=0p pd=0u as=0p ps=0u w=1e+06u l=150000u
X10 a_918_297# A1 VPWR VPB sky130_fd_pr__pfet_01v8_hvt ad=0p pd=0u as=0p ps=0u w=1e+06u l=150000u
X11 VPWR a_96_21# X VPB sky130_fd_pr__pfet_01v8_hvt ad=0p pd=0u as=0p ps=0u w=1e+06u l=150000u
X12 X a_96_21# VGND VNB sky130_fd_pr__nfet_01v8 ad=0p pd=0u as=0p ps=0u w=650000u l=150000u
X13 a_484_47# A1 VGND VNB sky130_fd_pr__nfet_01v8 ad=0p pd=0u as=0p ps=0u w=650000u l=150000u
X14 a_96_21# A2 a_918_297# VPB sky130_fd_pr__pfet_01v8_hvt ad=0p pd=0u as=0p ps=0u w=1e+06u l=150000u
X15 a_96_21# B2 a_484_47# VNB sky130_fd_pr__nfet_01v8 ad=0p pd=0u as=0p ps=0u w=650000u l=150000u
X16 VGND A1 a_484_47# VNB sky130_fd_pr__nfet_01v8 ad=0p pd=0u as=0p ps=0u w=650000u l=150000u
X17 a_566_297# B1 VPWR VPB sky130_fd_pr__pfet_01v8_hvt ad=0p pd=0u as=0p ps=0u w=1e+06u l=150000u
X18 VGND A2 a_484_47# VNB sky130_fd_pr__nfet_01v8 ad=0p pd=0u as=0p ps=0u w=650000u l=150000u
X19 a_566_297# B2 a_96_21# VPB sky130_fd_pr__pfet_01v8_hvt ad=0p pd=0u as=0p ps=0u w=1e+06u l=150000u
X20 a_484_47# B2 a_96_21# VNB sky130_fd_pr__nfet_01v8 ad=0p pd=0u as=0p ps=0u w=650000u l=150000u
X21 a_96_21# B2 a_566_297# VPB sky130_fd_pr__pfet_01v8_hvt ad=0p pd=0u as=0p ps=0u w=1e+06u l=150000u
X22 a_484_47# B1 a_96_21# VNB sky130_fd_pr__nfet_01v8 ad=0p pd=0u as=0p ps=0u w=650000u l=150000u
X23 VGND a_96_21# X VNB sky130_fd_pr__nfet_01v8 ad=0p pd=0u as=0p ps=0u w=650000u l=150000u
.ends

.subckt sky130_fd_sc_hd__diode_2 DIODE VGND VPWR VPB VNB
X0 VNB DIODE sky130_fd_pr__diode_pw2nd_05v5 area=4.347e+11p
.ends

.subckt sky130_fd_sc_hd__and3_4 A B C X VNB VPB VGND VPWR
X0 a_294_47# B a_185_47# VNB sky130_fd_pr__nfet_01v8 ad=0p pd=0u as=0p ps=0u w=650000u l=150000u
X1 VGND a_94_47# X VNB sky130_fd_pr__nfet_01v8 ad=0p pd=0u as=0p ps=0u w=650000u l=150000u
X2 a_94_47# B VPWR VPB sky130_fd_pr__pfet_01v8_hvt ad=0p pd=0u as=0p ps=0u w=1e+06u l=150000u
X3 VPWR A a_94_47# VPB sky130_fd_pr__pfet_01v8_hvt ad=0p pd=0u as=0p ps=0u w=1e+06u l=150000u
X4 a_185_47# A a_94_47# VNB sky130_fd_pr__nfet_01v8 ad=0p pd=0u as=0p ps=0u w=650000u l=150000u
X5 VPWR C a_94_47# VPB sky130_fd_pr__pfet_01v8_hvt ad=0p pd=0u as=0p ps=0u w=1e+06u l=150000u
X6 X a_94_47# VGND VNB sky130_fd_pr__nfet_01v8 ad=0p pd=0u as=0p ps=0u w=650000u l=150000u
X7 VPWR a_94_47# X VPB sky130_fd_pr__pfet_01v8_hvt ad=0p pd=0u as=0p ps=0u w=1e+06u l=150000u
X8 X a_94_47# VPWR VPB sky130_fd_pr__pfet_01v8_hvt ad=0p pd=0u as=0p ps=0u w=1e+06u l=150000u
X9 VGND C a_294_47# VNB sky130_fd_pr__nfet_01v8 ad=0p pd=0u as=0p ps=0u w=650000u l=150000u
X10 VGND a_94_47# X VNB sky130_fd_pr__nfet_01v8 ad=0p pd=0u as=0p ps=0u w=650000u l=150000u
X11 X a_94_47# VGND VNB sky130_fd_pr__nfet_01v8 ad=0p pd=0u as=0p ps=0u w=650000u l=150000u
X12 VPWR a_94_47# X VPB sky130_fd_pr__pfet_01v8_hvt ad=0p pd=0u as=0p ps=0u w=1e+06u l=150000u
X13 X a_94_47# VPWR VPB sky130_fd_pr__pfet_01v8_hvt ad=0p pd=0u as=0p ps=0u w=1e+06u l=150000u
.ends

.subckt sky130_fd_sc_hd__and2_4 X B A VNB VPB VGND VPWR
X0 VPWR B a_27_47# VPB sky130_fd_pr__pfet_01v8_hvt ad=0p pd=0u as=0p ps=0u w=1e+06u l=150000u
X1 a_27_47# A VPWR VPB sky130_fd_pr__pfet_01v8_hvt ad=0p pd=0u as=0p ps=0u w=1e+06u l=150000u
X2 VGND B a_110_47# VNB sky130_fd_pr__nfet_01v8 ad=0p pd=0u as=0p ps=0u w=650000u l=150000u
X3 X a_27_47# VGND VNB sky130_fd_pr__nfet_01v8 ad=0p pd=0u as=0p ps=0u w=650000u l=150000u
X4 a_110_47# A a_27_47# VNB sky130_fd_pr__nfet_01v8 ad=0p pd=0u as=0p ps=0u w=650000u l=150000u
X5 VGND a_27_47# X VNB sky130_fd_pr__nfet_01v8 ad=0p pd=0u as=0p ps=0u w=650000u l=150000u
X6 X a_27_47# VPWR VPB sky130_fd_pr__pfet_01v8_hvt ad=0p pd=0u as=0p ps=0u w=1e+06u l=150000u
X7 X a_27_47# VPWR VPB sky130_fd_pr__pfet_01v8_hvt ad=0p pd=0u as=0p ps=0u w=1e+06u l=150000u
X8 X a_27_47# VGND VNB sky130_fd_pr__nfet_01v8 ad=0p pd=0u as=0p ps=0u w=650000u l=150000u
X9 VPWR a_27_47# X VPB sky130_fd_pr__pfet_01v8_hvt ad=0p pd=0u as=0p ps=0u w=1e+06u l=150000u
X10 VGND a_27_47# X VNB sky130_fd_pr__nfet_01v8 ad=0p pd=0u as=0p ps=0u w=650000u l=150000u
X11 VPWR a_27_47# X VPB sky130_fd_pr__pfet_01v8_hvt ad=0p pd=0u as=0p ps=0u w=1e+06u l=150000u
.ends

.subckt sky130_fd_sc_hd__or2_4 X A B VNB VPB VGND VPWR
X0 a_121_297# B a_35_297# VPB sky130_fd_pr__pfet_01v8_hvt ad=0p pd=0u as=0p ps=0u w=1e+06u l=150000u
X1 VPWR a_35_297# X VPB sky130_fd_pr__pfet_01v8_hvt ad=0p pd=0u as=0p ps=0u w=1e+06u l=150000u
X2 VPWR a_35_297# X VPB sky130_fd_pr__pfet_01v8_hvt ad=0p pd=0u as=0p ps=0u w=1e+06u l=150000u
X3 X a_35_297# VGND VNB sky130_fd_pr__nfet_01v8 ad=0p pd=0u as=0p ps=0u w=650000u l=150000u
X4 X a_35_297# VPWR VPB sky130_fd_pr__pfet_01v8_hvt ad=0p pd=0u as=0p ps=0u w=1e+06u l=150000u
X5 X a_35_297# VPWR VPB sky130_fd_pr__pfet_01v8_hvt ad=0p pd=0u as=0p ps=0u w=1e+06u l=150000u
X6 VGND a_35_297# X VNB sky130_fd_pr__nfet_01v8 ad=0p pd=0u as=0p ps=0u w=650000u l=150000u
X7 X a_35_297# VGND VNB sky130_fd_pr__nfet_01v8 ad=0p pd=0u as=0p ps=0u w=650000u l=150000u
X8 VGND A a_35_297# VNB sky130_fd_pr__nfet_01v8 ad=0p pd=0u as=0p ps=0u w=650000u l=150000u
X9 a_35_297# B VGND VNB sky130_fd_pr__nfet_01v8 ad=0p pd=0u as=0p ps=0u w=650000u l=150000u
X10 VPWR A a_121_297# VPB sky130_fd_pr__pfet_01v8_hvt ad=0p pd=0u as=0p ps=0u w=1e+06u l=150000u
X11 VGND a_35_297# X VNB sky130_fd_pr__nfet_01v8 ad=0p pd=0u as=0p ps=0u w=650000u l=150000u
.ends

.subckt sky130_fd_sc_hd__a211o_4 VNB VPB VGND VPWR C1 B1 X A2 A1
X0 a_79_204# C1 a_555_297# VPB sky130_fd_pr__pfet_01v8_hvt ad=0p pd=0u as=0p ps=0u w=1e+06u l=150000u
X1 VPWR A2 a_473_297# VPB sky130_fd_pr__pfet_01v8_hvt ad=0p pd=0u as=0p ps=0u w=1e+06u l=150000u
X2 VGND A2 a_1123_47# VNB sky130_fd_pr__nfet_01v8 ad=0p pd=0u as=0p ps=0u w=650000u l=150000u
X3 VGND C1 a_79_204# VNB sky130_fd_pr__nfet_01v8 ad=0p pd=0u as=0p ps=0u w=650000u l=150000u
X4 a_473_297# A1 VPWR VPB sky130_fd_pr__pfet_01v8_hvt ad=0p pd=0u as=0p ps=0u w=1e+06u l=150000u
X5 VPWR a_79_204# X VPB sky130_fd_pr__pfet_01v8_hvt ad=0p pd=0u as=0p ps=0u w=1e+06u l=150000u
X6 X a_79_204# VPWR VPB sky130_fd_pr__pfet_01v8_hvt ad=0p pd=0u as=0p ps=0u w=1e+06u l=150000u
X7 a_79_204# A1 a_951_47# VNB sky130_fd_pr__nfet_01v8 ad=0p pd=0u as=0p ps=0u w=650000u l=150000u
X8 a_79_204# C1 VGND VNB sky130_fd_pr__nfet_01v8 ad=0p pd=0u as=0p ps=0u w=650000u l=150000u
X9 X a_79_204# VGND VNB sky130_fd_pr__nfet_01v8 ad=0p pd=0u as=0p ps=0u w=650000u l=150000u
X10 a_951_47# A2 VGND VNB sky130_fd_pr__nfet_01v8 ad=0p pd=0u as=0p ps=0u w=650000u l=150000u
X11 a_473_297# B1 a_727_297# VPB sky130_fd_pr__pfet_01v8_hvt ad=0p pd=0u as=0p ps=0u w=1e+06u l=150000u
X12 VGND a_79_204# X VNB sky130_fd_pr__nfet_01v8 ad=0p pd=0u as=0p ps=0u w=650000u l=150000u
X13 X a_79_204# VGND VNB sky130_fd_pr__nfet_01v8 ad=0p pd=0u as=0p ps=0u w=650000u l=150000u
X14 a_727_297# C1 a_79_204# VPB sky130_fd_pr__pfet_01v8_hvt ad=0p pd=0u as=0p ps=0u w=1e+06u l=150000u
X15 a_79_204# B1 VGND VNB sky130_fd_pr__nfet_01v8 ad=0p pd=0u as=0p ps=0u w=650000u l=150000u
X16 a_1123_47# A1 a_79_204# VNB sky130_fd_pr__nfet_01v8 ad=0p pd=0u as=0p ps=0u w=650000u l=150000u
X17 a_555_297# B1 a_473_297# VPB sky130_fd_pr__pfet_01v8_hvt ad=0p pd=0u as=0p ps=0u w=1e+06u l=150000u
X18 X a_79_204# VPWR VPB sky130_fd_pr__pfet_01v8_hvt ad=0p pd=0u as=0p ps=0u w=1e+06u l=150000u
X19 VGND a_79_204# X VNB sky130_fd_pr__nfet_01v8 ad=0p pd=0u as=0p ps=0u w=650000u l=150000u
X20 VPWR A1 a_473_297# VPB sky130_fd_pr__pfet_01v8_hvt ad=0p pd=0u as=0p ps=0u w=1e+06u l=150000u
X21 a_473_297# A2 VPWR VPB sky130_fd_pr__pfet_01v8_hvt ad=0p pd=0u as=0p ps=0u w=1e+06u l=150000u
X22 VPWR a_79_204# X VPB sky130_fd_pr__pfet_01v8_hvt ad=0p pd=0u as=0p ps=0u w=1e+06u l=150000u
X23 VGND B1 a_79_204# VNB sky130_fd_pr__nfet_01v8 ad=0p pd=0u as=0p ps=0u w=650000u l=150000u
.ends

.subckt sky130_fd_sc_hd__or4_4 B C A D X VNB VPB VPWR VGND
X0 VGND C a_32_297# VNB sky130_fd_pr__nfet_01v8 ad=0p pd=0u as=0p ps=0u w=650000u l=150000u
X1 a_220_297# C a_114_297# VPB sky130_fd_pr__pfet_01v8_hvt ad=0p pd=0u as=0p ps=0u w=1e+06u l=150000u
X2 a_32_297# D VGND VNB sky130_fd_pr__nfet_01v8 ad=0p pd=0u as=0p ps=0u w=650000u l=150000u
X3 VGND a_32_297# X VNB sky130_fd_pr__nfet_01v8 ad=0p pd=0u as=0p ps=0u w=650000u l=150000u
X4 a_114_297# D a_32_297# VPB sky130_fd_pr__pfet_01v8_hvt ad=0p pd=0u as=0p ps=0u w=1e+06u l=150000u
X5 X a_32_297# VGND VNB sky130_fd_pr__nfet_01v8 ad=0p pd=0u as=0p ps=0u w=650000u l=150000u
X6 VPWR a_32_297# X VPB sky130_fd_pr__pfet_01v8_hvt ad=0p pd=0u as=0p ps=0u w=1e+06u l=150000u
X7 VPWR a_32_297# X VPB sky130_fd_pr__pfet_01v8_hvt ad=0p pd=0u as=0p ps=0u w=1e+06u l=150000u
X8 X a_32_297# VPWR VPB sky130_fd_pr__pfet_01v8_hvt ad=0p pd=0u as=0p ps=0u w=1e+06u l=150000u
X9 X a_32_297# VPWR VPB sky130_fd_pr__pfet_01v8_hvt ad=0p pd=0u as=0p ps=0u w=1e+06u l=150000u
X10 VGND A a_32_297# VNB sky130_fd_pr__nfet_01v8 ad=0p pd=0u as=0p ps=0u w=650000u l=150000u
X11 VPWR A a_304_297# VPB sky130_fd_pr__pfet_01v8_hvt ad=0p pd=0u as=0p ps=0u w=1e+06u l=150000u
X12 VGND a_32_297# X VNB sky130_fd_pr__nfet_01v8 ad=0p pd=0u as=0p ps=0u w=650000u l=150000u
X13 a_32_297# B VGND VNB sky130_fd_pr__nfet_01v8 ad=0p pd=0u as=0p ps=0u w=650000u l=150000u
X14 a_304_297# B a_220_297# VPB sky130_fd_pr__pfet_01v8_hvt ad=0p pd=0u as=0p ps=0u w=1e+06u l=150000u
X15 X a_32_297# VGND VNB sky130_fd_pr__nfet_01v8 ad=0p pd=0u as=0p ps=0u w=650000u l=150000u
.ends

.subckt sky130_fd_sc_hd__nor2_4 Y A B VPB VNB VGND VPWR
X0 Y B a_27_297# VPB sky130_fd_pr__pfet_01v8_hvt ad=0p pd=0u as=0p ps=0u w=1e+06u l=150000u
X1 VGND A Y VNB sky130_fd_pr__nfet_01v8 ad=0p pd=0u as=0p ps=0u w=650000u l=150000u
X2 a_27_297# A VPWR VPB sky130_fd_pr__pfet_01v8_hvt ad=0p pd=0u as=0p ps=0u w=1e+06u l=150000u
X3 a_27_297# A VPWR VPB sky130_fd_pr__pfet_01v8_hvt ad=0p pd=0u as=0p ps=0u w=1e+06u l=150000u
X4 a_27_297# B Y VPB sky130_fd_pr__pfet_01v8_hvt ad=0p pd=0u as=0p ps=0u w=1e+06u l=150000u
X5 Y A VGND VNB sky130_fd_pr__nfet_01v8 ad=0p pd=0u as=0p ps=0u w=650000u l=150000u
X6 VPWR A a_27_297# VPB sky130_fd_pr__pfet_01v8_hvt ad=0p pd=0u as=0p ps=0u w=1e+06u l=150000u
X7 VPWR A a_27_297# VPB sky130_fd_pr__pfet_01v8_hvt ad=0p pd=0u as=0p ps=0u w=1e+06u l=150000u
X8 Y A VGND VNB sky130_fd_pr__nfet_01v8 ad=0p pd=0u as=0p ps=0u w=650000u l=150000u
X9 VGND B Y VNB sky130_fd_pr__nfet_01v8 ad=0p pd=0u as=0p ps=0u w=650000u l=150000u
X10 Y B a_27_297# VPB sky130_fd_pr__pfet_01v8_hvt ad=0p pd=0u as=0p ps=0u w=1e+06u l=150000u
X11 VGND A Y VNB sky130_fd_pr__nfet_01v8 ad=0p pd=0u as=0p ps=0u w=650000u l=150000u
X12 VGND B Y VNB sky130_fd_pr__nfet_01v8 ad=0p pd=0u as=0p ps=0u w=650000u l=150000u
X13 a_27_297# B Y VPB sky130_fd_pr__pfet_01v8_hvt ad=0p pd=0u as=0p ps=0u w=1e+06u l=150000u
X14 Y B VGND VNB sky130_fd_pr__nfet_01v8 ad=0p pd=0u as=0p ps=0u w=650000u l=150000u
X15 Y B VGND VNB sky130_fd_pr__nfet_01v8 ad=0p pd=0u as=0p ps=0u w=650000u l=150000u
.ends

.subckt sky130_fd_sc_hd__o21a_4 A1 A2 B1 X VNB VPB VPWR VGND
X0 a_934_297# A2 a_80_21# VPB sky130_fd_pr__pfet_01v8_hvt ad=0p pd=0u as=0p ps=0u w=1e+06u l=150000u
X1 VGND a_80_21# X VNB sky130_fd_pr__nfet_01v8 ad=0p pd=0u as=0p ps=0u w=650000u l=150000u
X2 X a_80_21# VGND VNB sky130_fd_pr__nfet_01v8 ad=0p pd=0u as=0p ps=0u w=650000u l=150000u
X3 X a_80_21# VPWR VPB sky130_fd_pr__pfet_01v8_hvt ad=0p pd=0u as=0p ps=0u w=1e+06u l=150000u
X4 a_475_47# A1 VGND VNB sky130_fd_pr__nfet_01v8 ad=0p pd=0u as=0p ps=0u w=650000u l=150000u
X5 X a_80_21# VPWR VPB sky130_fd_pr__pfet_01v8_hvt ad=0p pd=0u as=0p ps=0u w=1e+06u l=150000u
X6 VPWR a_80_21# X VPB sky130_fd_pr__pfet_01v8_hvt ad=0p pd=0u as=0p ps=0u w=1e+06u l=150000u
X7 a_80_21# B1 a_475_47# VNB sky130_fd_pr__nfet_01v8 ad=0p pd=0u as=0p ps=0u w=650000u l=150000u
X8 a_475_47# B1 a_80_21# VNB sky130_fd_pr__nfet_01v8 ad=0p pd=0u as=0p ps=0u w=650000u l=150000u
X9 VPWR B1 a_80_21# VPB sky130_fd_pr__pfet_01v8_hvt ad=0p pd=0u as=0p ps=0u w=1e+06u l=150000u
X10 VGND a_80_21# X VNB sky130_fd_pr__nfet_01v8 ad=0p pd=0u as=0p ps=0u w=650000u l=150000u
X11 VGND A1 a_475_47# VNB sky130_fd_pr__nfet_01v8 ad=0p pd=0u as=0p ps=0u w=650000u l=150000u
X12 a_80_21# B1 VPWR VPB sky130_fd_pr__pfet_01v8_hvt ad=0p pd=0u as=0p ps=0u w=1e+06u l=150000u
X13 a_80_21# A2 a_762_297# VPB sky130_fd_pr__pfet_01v8_hvt ad=0p pd=0u as=0p ps=0u w=1e+06u l=150000u
X14 VPWR a_80_21# X VPB sky130_fd_pr__pfet_01v8_hvt ad=0p pd=0u as=0p ps=0u w=1e+06u l=150000u
X15 a_762_297# A1 VPWR VPB sky130_fd_pr__pfet_01v8_hvt ad=0p pd=0u as=0p ps=0u w=1e+06u l=150000u
X16 VPWR A1 a_934_297# VPB sky130_fd_pr__pfet_01v8_hvt ad=0p pd=0u as=0p ps=0u w=1e+06u l=150000u
X17 X a_80_21# VGND VNB sky130_fd_pr__nfet_01v8 ad=0p pd=0u as=0p ps=0u w=650000u l=150000u
X18 a_475_47# A2 VGND VNB sky130_fd_pr__nfet_01v8 ad=0p pd=0u as=0p ps=0u w=650000u l=150000u
X19 VGND A2 a_475_47# VNB sky130_fd_pr__nfet_01v8 ad=0p pd=0u as=0p ps=0u w=650000u l=150000u
.ends

.subckt sky130_fd_sc_hd__a2bb2o_4 B1 B2 X A1_N A2_N VNB VPB VGND VPWR
X0 a_415_21# A2_N VGND VNB sky130_fd_pr__nfet_01v8 ad=0p pd=0u as=0p ps=0u w=650000u l=150000u
X1 X a_193_47# VGND VNB sky130_fd_pr__nfet_01v8 ad=0p pd=0u as=0p ps=0u w=650000u l=150000u
X2 a_193_47# a_415_21# VGND VNB sky130_fd_pr__nfet_01v8 ad=0p pd=0u as=0p ps=0u w=650000u l=150000u
X3 X a_193_47# VPWR VPB sky130_fd_pr__pfet_01v8_hvt ad=0p pd=0u as=0p ps=0u w=1e+06u l=150000u
X4 X a_193_47# VGND VNB sky130_fd_pr__nfet_01v8 ad=0p pd=0u as=0p ps=0u w=650000u l=150000u
X5 a_27_297# a_415_21# a_193_47# VPB sky130_fd_pr__pfet_01v8_hvt ad=0p pd=0u as=0p ps=0u w=1e+06u l=150000u
X6 VGND A2_N a_415_21# VNB sky130_fd_pr__nfet_01v8 ad=0p pd=0u as=0p ps=0u w=650000u l=150000u
X7 VGND B1 a_109_47# VNB sky130_fd_pr__nfet_01v8 ad=0p pd=0u as=0p ps=0u w=650000u l=150000u
X8 VGND a_415_21# a_193_47# VNB sky130_fd_pr__nfet_01v8 ad=0p pd=0u as=0p ps=0u w=650000u l=150000u
X9 VPWR a_193_47# X VPB sky130_fd_pr__pfet_01v8_hvt ad=0p pd=0u as=0p ps=0u w=1e+06u l=150000u
X10 a_415_21# A1_N VGND VNB sky130_fd_pr__nfet_01v8 ad=0p pd=0u as=0p ps=0u w=650000u l=150000u
X11 X a_193_47# VPWR VPB sky130_fd_pr__pfet_01v8_hvt ad=0p pd=0u as=0p ps=0u w=1e+06u l=150000u
X12 a_109_47# B2 a_193_47# VNB sky130_fd_pr__nfet_01v8 ad=0p pd=0u as=0p ps=0u w=650000u l=150000u
X13 VPWR A1_N a_717_297# VPB sky130_fd_pr__pfet_01v8_hvt ad=0p pd=0u as=0p ps=0u w=1e+06u l=150000u
X14 a_193_47# B2 a_109_47# VNB sky130_fd_pr__nfet_01v8 ad=0p pd=0u as=0p ps=0u w=650000u l=150000u
X15 VPWR B2 a_27_297# VPB sky130_fd_pr__pfet_01v8_hvt ad=0p pd=0u as=0p ps=0u w=1e+06u l=150000u
X16 a_717_297# A1_N VPWR VPB sky130_fd_pr__pfet_01v8_hvt ad=0p pd=0u as=0p ps=0u w=1e+06u l=150000u
X17 a_109_47# B1 VGND VNB sky130_fd_pr__nfet_01v8 ad=0p pd=0u as=0p ps=0u w=650000u l=150000u
X18 a_717_297# A2_N a_415_21# VPB sky130_fd_pr__pfet_01v8_hvt ad=0p pd=0u as=0p ps=0u w=1e+06u l=150000u
X19 a_193_47# a_415_21# a_27_297# VPB sky130_fd_pr__pfet_01v8_hvt ad=0p pd=0u as=0p ps=0u w=1e+06u l=150000u
X20 VPWR B1 a_27_297# VPB sky130_fd_pr__pfet_01v8_hvt ad=0p pd=0u as=0p ps=0u w=1e+06u l=150000u
X21 a_27_297# B2 VPWR VPB sky130_fd_pr__pfet_01v8_hvt ad=0p pd=0u as=0p ps=0u w=1e+06u l=150000u
X22 VGND A1_N a_415_21# VNB sky130_fd_pr__nfet_01v8 ad=0p pd=0u as=0p ps=0u w=650000u l=150000u
X23 a_415_21# A2_N a_717_297# VPB sky130_fd_pr__pfet_01v8_hvt ad=0p pd=0u as=0p ps=0u w=1e+06u l=150000u
X24 VGND a_193_47# X VNB sky130_fd_pr__nfet_01v8 ad=0p pd=0u as=0p ps=0u w=650000u l=150000u
X25 a_27_297# B1 VPWR VPB sky130_fd_pr__pfet_01v8_hvt ad=0p pd=0u as=0p ps=0u w=1e+06u l=150000u
X26 VPWR a_193_47# X VPB sky130_fd_pr__pfet_01v8_hvt ad=0p pd=0u as=0p ps=0u w=1e+06u l=150000u
X27 VGND a_193_47# X VNB sky130_fd_pr__nfet_01v8 ad=0p pd=0u as=0p ps=0u w=650000u l=150000u
.ends

.subckt sky130_fd_sc_hd__o21ai_4 Y B1 A2 A1 VNB VPB VPWR VGND
X0 Y A2 a_115_297# VPB sky130_fd_pr__pfet_01v8_hvt ad=0p pd=0u as=0p ps=0u w=1e+06u l=150000u
X1 a_32_47# A1 VGND VNB sky130_fd_pr__nfet_01v8 ad=0p pd=0u as=0p ps=0u w=650000u l=150000u
X2 a_32_47# B1 Y VNB sky130_fd_pr__nfet_01v8 ad=0p pd=0u as=0p ps=0u w=650000u l=150000u
X3 a_32_47# B1 Y VNB sky130_fd_pr__nfet_01v8 ad=0p pd=0u as=0p ps=0u w=650000u l=150000u
X4 a_115_297# A2 Y VPB sky130_fd_pr__pfet_01v8_hvt ad=0p pd=0u as=0p ps=0u w=1e+06u l=150000u
X5 Y B1 a_32_47# VNB sky130_fd_pr__nfet_01v8 ad=0p pd=0u as=0p ps=0u w=650000u l=150000u
X6 VGND A1 a_32_47# VNB sky130_fd_pr__nfet_01v8 ad=0p pd=0u as=0p ps=0u w=650000u l=150000u
X7 a_115_297# A1 VPWR VPB sky130_fd_pr__pfet_01v8_hvt ad=0p pd=0u as=0p ps=0u w=1e+06u l=150000u
X8 a_32_47# A2 VGND VNB sky130_fd_pr__nfet_01v8 ad=0p pd=0u as=0p ps=0u w=650000u l=150000u
X9 a_115_297# A1 VPWR VPB sky130_fd_pr__pfet_01v8_hvt ad=0p pd=0u as=0p ps=0u w=1e+06u l=150000u
X10 VPWR A1 a_115_297# VPB sky130_fd_pr__pfet_01v8_hvt ad=0p pd=0u as=0p ps=0u w=1e+06u l=150000u
X11 VPWR B1 Y VPB sky130_fd_pr__pfet_01v8_hvt ad=0p pd=0u as=0p ps=0u w=1e+06u l=150000u
X12 VPWR B1 Y VPB sky130_fd_pr__pfet_01v8_hvt ad=0p pd=0u as=0p ps=0u w=1e+06u l=150000u
X13 Y B1 VPWR VPB sky130_fd_pr__pfet_01v8_hvt ad=0p pd=0u as=0p ps=0u w=1e+06u l=150000u
X14 VGND A2 a_32_47# VNB sky130_fd_pr__nfet_01v8 ad=0p pd=0u as=0p ps=0u w=650000u l=150000u
X15 VPWR A1 a_115_297# VPB sky130_fd_pr__pfet_01v8_hvt ad=0p pd=0u as=0p ps=0u w=1e+06u l=150000u
X16 VGND A1 a_32_47# VNB sky130_fd_pr__nfet_01v8 ad=0p pd=0u as=0p ps=0u w=650000u l=150000u
X17 a_32_47# A2 VGND VNB sky130_fd_pr__nfet_01v8 ad=0p pd=0u as=0p ps=0u w=650000u l=150000u
X18 Y A2 a_115_297# VPB sky130_fd_pr__pfet_01v8_hvt ad=0p pd=0u as=0p ps=0u w=1e+06u l=150000u
X19 a_115_297# A2 Y VPB sky130_fd_pr__pfet_01v8_hvt ad=0p pd=0u as=0p ps=0u w=1e+06u l=150000u
X20 VGND A2 a_32_47# VNB sky130_fd_pr__nfet_01v8 ad=0p pd=0u as=0p ps=0u w=650000u l=150000u
X21 a_32_47# A1 VGND VNB sky130_fd_pr__nfet_01v8 ad=0p pd=0u as=0p ps=0u w=650000u l=150000u
X22 Y B1 VPWR VPB sky130_fd_pr__pfet_01v8_hvt ad=0p pd=0u as=0p ps=0u w=1e+06u l=150000u
X23 Y B1 a_32_47# VNB sky130_fd_pr__nfet_01v8 ad=0p pd=0u as=0p ps=0u w=650000u l=150000u
.ends

.subckt sky130_fd_sc_hd__a21bo_4 B1_N A2 A1 X VNB VPB VGND VPWR
X0 a_205_21# A1 a_861_47# VNB sky130_fd_pr__nfet_01v8 ad=0p pd=0u as=0p ps=0u w=650000u l=150000u
X1 a_1021_47# A1 a_205_21# VNB sky130_fd_pr__nfet_01v8 ad=0p pd=0u as=0p ps=0u w=650000u l=150000u
X2 a_603_297# a_42_47# a_205_21# VPB sky130_fd_pr__pfet_01v8_hvt ad=0p pd=0u as=0p ps=0u w=1e+06u l=150000u
X3 a_603_297# A1 VPWR VPB sky130_fd_pr__pfet_01v8_hvt ad=0p pd=0u as=0p ps=0u w=1e+06u l=150000u
X4 VPWR B1_N a_42_47# VPB sky130_fd_pr__pfet_01v8_hvt ad=0p pd=0u as=0p ps=0u w=1e+06u l=150000u
X5 X a_205_21# VPWR VPB sky130_fd_pr__pfet_01v8_hvt ad=0p pd=0u as=0p ps=0u w=1e+06u l=150000u
X6 VPWR a_205_21# X VPB sky130_fd_pr__pfet_01v8_hvt ad=0p pd=0u as=0p ps=0u w=1e+06u l=150000u
X7 a_205_21# a_42_47# a_603_297# VPB sky130_fd_pr__pfet_01v8_hvt ad=0p pd=0u as=0p ps=0u w=1e+06u l=150000u
X8 VPWR A2 a_603_297# VPB sky130_fd_pr__pfet_01v8_hvt ad=0p pd=0u as=0p ps=0u w=1e+06u l=150000u